<?xml version="1.0" encoding="UTF-8"?>

<!-- generated on 2024-12-05 15:06:25 by Eclipse SUMO sumo Version 1.21.0
-->

<sumoConfiguration xmlns:xsi="http://www.w3.org/2001/XMLSchema-instance" xsi:noNamespaceSchemaLocation="http://sumo.dlr.de/xsd/sumoConfiguration.xsd">

    <input>
        <net-file value="Bycicle_grid.net.xml"/>
        <route-files value="TesteNew.rou.xml"/>
        <additional-files value="TesteNew.add.xml"/>
    </input>

</sumoConfiguration>
