<?xml version="1.0" encoding="UTF-8"?>

<!-- generated on 2024-08-30 20:00:34 by Eclipse SUMO netedit Version 1.20.0
-->

<routes xmlns:xsi="http://www.w3.org/2001/XMLSchema-instance" xsi:noNamespaceSchemaLocation="http://sumo.dlr.de/xsd/routes_file.xsd">
    <!-- Routes -->
    <route id="r_7" edges="-E0 A4A3 A3A2 A2A1 A1A0 A0B0 B0C0 C0D0 D0E0 E0E1 E1E2 E2E3 E3E4 E4D4 D4C4 C4B4 B4A4 A4A3"/>
    <!-- Vehicles, persons and containers (sorted by depart) -->
    <flow id="f_0" begin="0.00" route="r_7" end="0.00" number="20"/>
</routes>
