<?xml version="1.0" encoding="UTF-8"?>

<!-- generated on 2024-08-20 09:24:05 by Eclipse SUMO netedit Version 1.20.0
-->

<routes xmlns:xsi="http://www.w3.org/2001/XMLSchema-instance" xsi:noNamespaceSchemaLocation="http://sumo.dlr.de/xsd/routes_file.xsd">
    <!-- Routes -->
    <route id="r_0" edges="E2 E1 E8"/>
    <!-- Vehicles, persons and containers (sorted by depart) -->
    <flow id="f_0" type="DEFAULT_BIKETYPE" begin="0.00" route="r_0" end="0.00" number="10"/>
</routes>
